minlp-notes/research-20261001/scip-set-selection/logs/root/powerflow0014r.off.s0.log
SCIP version 10.0.3 [precision: 8 byte] [memory: block] [mode: optimized] [LP solver: SoPlex 8.0.3] [GitHash: d409edf9f6]
Copyright (c) 2002-2026 Zuse Institute Berlin (ZIB)

External libraries: 
  Readline 8.3         GNU library for command line editing (gnu.org/s/readline)
  SoPlex 8.0.3         Linear programming solver developed at Zuse Institute Berlin (soplex.zib.de) [GitHash: 13e2ab24]
  CppAD 20180000.0     Algorithmic Differentiation of C++ algorithms developed by B. Bell (github.com/coin-or/CppAD)
  ZLIB 1.3.2           General purpose compression library by J. Gailly and M. Adler (zlib.net)
  LAPACK 3.12.0        General Linear Algebra PACKage (http://www.netlib.org/lapack/)
  MPFR 4.2.2           GNU Multiple Precision Floating-Point Reliable Library (mpfr.org)
  Boost 1.85.0         Boost C++ Libraries (boost.org)
  TinyCThread 1.2      small portable implementation of the C11 threads API (tinycthread.github.io)
  GMP 6.3.0            GNU Multiple Precision Arithmetic Library developed by T. Granlund (gmplib.org)
  AMPL/MP 4.0.4        AMPL .nl file reader library (github.com/ampl/mp)
  Nauty 2.8.8          Computing Graph Automorphism Groups by Brendan D. McKay (users.cecs.anu.edu.au/~bdm/nauty)
  sassy 2.1            Symmetry preprocessor by Markus Anders (github.com/markusa4/sassy)

user parameter file <scip.set> not found - using default parameters

table/nlhdlr_quadratic/active = TRUE
limits/memory = 6000
limits/time = 120
timing/clocktype = 1
limits/nodes = 1

read problem </workspace/local-home/.cache/minlplib/minlplib/osil/powerflow0014r.osil>
============

original problem has 119 variables (0 bin, 0 int, 119 cont) and 198 constraints

presolving:
(round 1, fast)       15 del vars, 69 del conss, 0 add conss, 366 chg bounds, 0 chg sides, 0 chg coeffs, 0 upgd conss, 0 impls, 0 clqs, 0 implints
(round 2, fast)       15 del vars, 71 del conss, 0 add conss, 394 chg bounds, 0 chg sides, 0 chg coeffs, 0 upgd conss, 0 impls, 0 clqs, 0 implints
   (0.0s) symmetry computation started: requiring (bin +, int +, cont +), (fixed: bin -, int -, cont -)
   (0.0s) no symmetry present (symcode time: 0.00)
presolving (3 rounds: 3 fast, 1 medium, 1 exhaustive):
 15 deleted vars, 71 deleted constraints, 0 added constraints, 394 tightened bounds, 0 added holes, 0 changed sides, 0 changed coefficients
 0 implications, 0 cliques, 0 implied integral variables (0 bin, 0 int, 0 cont)
presolved problem has 104 variables (0 bin, 0 int, 104 cont) and 113 constraints
     18 constraints of type <linear>
     95 constraints of type <nonlinear>
Presolving Time: 0.00

 time | node  | left  |LP iter|LP it/n|mem/heur|mdpt |vars |cons |rows |cuts |sepa|confs|strbr|  dualbound   | primalbound  |  gap   | compl. 
  0.0s|     1 |     0 |   226 |     - |  4301k |   0 | 306 | 113 | 333 |   0 |  0 |   0 |   0 |-1.000000e-09 |      --      |    Inf | unknown
  0.1s|     1 |     0 |   278 |     - |  5092k |   0 | 306 | 113 | 351 |  18 |  1 |   0 |   0 |-1.000000e-09 |      --      |    Inf | unknown
  0.1s|     1 |     0 |   324 |     - |  5092k |   0 | 306 | 113 | 370 |  37 |  2 |   0 |   0 |-1.000000e-09 |      --      |    Inf | unknown
  0.1s|     1 |     0 |   400 |     - |  5103k |   0 | 306 | 113 | 388 |  55 |  3 |   0 |   0 |-1.000000e-09 |      --      |    Inf | unknown
  0.1s|     1 |     0 |   458 |     - |  5103k |   0 | 306 | 113 | 404 |  71 |  4 |   0 |   0 |-1.000000e-09 |      --      |    Inf | unknown
  0.1s|     1 |     0 |   564 |     - |  5103k |   0 | 306 | 113 | 420 |  87 |  5 |   0 |   0 |-1.000000e-09 |      --      |    Inf | unknown
  0.1s|     1 |     0 |   628 |     - |  5210k |   0 | 306 | 113 | 436 | 103 |  6 |   0 |   0 |-1.000000e-09 |      --      |    Inf | unknown
  0.1s|     1 |     0 |   668 |     - |  5342k |   0 | 306 | 113 | 453 | 120 |  7 |   0 |   0 |-1.000000e-09 |      --      |    Inf | unknown
  0.1s|     1 |     0 |   739 |     - |  5342k |   0 | 306 | 113 | 470 | 137 |  8 |   0 |   0 |-1.000000e-09 |      --      |    Inf | unknown
  0.1s|     1 |     0 |   789 |     - |  5413k |   0 | 306 | 113 | 487 | 154 |  9 |   0 |   0 |-1.000000e-09 |      --      |    Inf | unknown
  0.1s|     1 |     0 |   827 |     - |  5413k |   0 | 306 | 113 | 304 | 170 | 10 |   0 |   0 |-1.000000e-09 |      --      |    Inf | unknown
  0.1s|     1 |     0 |   862 |     - |  5413k |   0 | 306 | 113 | 321 | 187 | 11 |   0 |   0 |-1.000000e-09 |      --      |    Inf | unknown
  0.6s|     1 |     0 | 10691 |     - |  5431k |   0 | 306 | 113 | 321 | 187 | 11 |   0 |   0 |-1.000000e-09 |      --      |    Inf | unknown
  0.6s|     1 |     0 | 10747 |     - |  5431k |   0 | 306 | 113 | 294 | 206 | 12 |   0 |   0 |-1.000000e-09 |      --      |    Inf | unknown
  0.6s|     1 |     0 | 10803 |     - |  5431k |   0 | 306 | 113 | 310 | 222 | 13 |   0 |   0 |-1.000000e-09 |      --      |    Inf | unknown
 time | node  | left  |LP iter|LP it/n|mem/heur|mdpt |vars |cons |rows |cuts |sepa|confs|strbr|  dualbound   | primalbound  |  gap   | compl. 
  0.6s|     1 |     0 | 10868 |     - |  5431k |   0 | 306 | 113 | 327 | 239 | 14 |   0 |   0 |-1.000000e-09 |      --      |    Inf | unknown
  0.6s|     1 |     0 | 10963 |     - |  5431k |   0 | 306 | 113 | 342 | 254 | 15 |   0 |   0 |-1.000000e-09 |      --      |    Inf | unknown
  0.6s|     1 |     0 | 11050 |     - |  5431k |   0 | 306 | 113 | 356 | 268 | 16 |   0 |   0 |-1.000000e-09 |      --      |    Inf | unknown
  0.6s|     1 |     0 | 11102 |     - |  5431k |   0 | 306 | 113 | 371 | 283 | 17 |   0 |   0 |-1.000000e-09 |      --      |    Inf | unknown
  0.6s|     1 |     0 | 11170 |     - |  5497k |   0 | 306 | 113 | 293 | 299 | 18 |   0 |   0 |-1.000000e-09 |      --      |    Inf | unknown
  0.6s|     1 |     0 | 11228 |     - |  5497k |   0 | 306 | 113 | 309 | 315 | 19 |   0 |   0 |-1.000000e-09 |      --      |    Inf | unknown
  0.6s|     1 |     0 | 11356 |     - |  5497k |   0 | 306 | 113 | 327 | 333 | 20 |   0 |   0 |-1.000000e-09 |      --      |    Inf | unknown
  0.6s|     1 |     0 | 11455 |     - |  5497k |   0 | 306 | 113 | 343 | 349 | 21 |   0 |   0 |-1.000000e-09 |      --      |    Inf | unknown
  0.6s|     1 |     0 | 11554 |     - |  5497k |   0 | 306 | 113 | 357 | 363 | 22 |   0 |   0 |-1.000000e-09 |      --      |    Inf | unknown
  1.1s|     1 |     0 | 24026 |     - |  5502k |   0 | 306 | 113 | 381 | 387 | 22 |   0 |   0 |-1.000000e-09 |      --      |    Inf | unknown
  1.1s|     1 |     0 | 24293 |     - |  5502k |   0 | 306 | 113 | 398 | 404 | 23 |   0 |   0 |-1.000000e-09 |      --      |    Inf | unknown
  1.1s|     1 |     0 | 24307 |     - |  5502k |   0 | 306 | 113 | 404 | 410 | 24 |   0 |   0 |-1.000000e-09 |      --      |    Inf | unknown
  1.1s|     1 |     0 | 24597 |     - |  5502k |   0 | 306 | 113 | 317 | 429 | 25 |   0 |   0 | 8.999350e+02 |      --      |    Inf | unknown
  1.1s|     1 |     0 | 24608 |     - |  5502k |   0 | 306 | 113 | 327 | 439 | 26 |   0 |   0 | 9.495733e+02 |      --      |    Inf | unknown
  1.1s|     1 |     0 | 24652 |     - |  5502k |   0 | 306 | 113 | 347 | 459 | 27 |   0 |   0 | 1.695492e+03 |      --      |    Inf | unknown
 time | node  | left  |LP iter|LP it/n|mem/heur|mdpt |vars |cons |rows |cuts |sepa|confs|strbr|  dualbound   | primalbound  |  gap   | compl. 
  1.1s|     1 |     0 | 24676 |     - |  5502k |   0 | 306 | 113 | 361 | 473 | 28 |   0 |   0 | 1.929597e+03 |      --      |    Inf | unknown
  1.1s|     1 |     0 | 24793 |     - |  5502k |   0 | 306 | 113 | 380 | 492 | 29 |   0 |   0 | 2.170869e+03 |      --      |    Inf | unknown
  1.1s|     1 |     0 | 24824 |     - |  5502k |   0 | 306 | 113 | 401 | 513 | 30 |   0 |   0 | 2.178894e+03 |      --      |    Inf | unknown
  1.1s|     1 |     0 | 24893 |     - |  5502k |   0 | 306 | 113 | 355 | 531 | 31 |   0 |   0 | 2.499150e+03 |      --      |    Inf | unknown
  1.2s|     1 |     0 | 24913 |     - |  5502k |   0 | 306 | 113 | 363 | 539 | 32 |   0 |   0 | 2.515364e+03 |      --      |    Inf | unknown
  1.2s|     1 |     0 | 25001 |     - |  5502k |   0 | 306 | 113 | 380 | 556 | 33 |   0 |   0 | 2.866125e+03 |      --      |    Inf | unknown
  1.2s|     1 |     0 | 25024 |     - |  5502k |   0 | 306 | 113 | 394 | 570 | 34 |   0 |   0 | 2.894172e+03 |      --      |    Inf | unknown
  1.2s|     1 |     0 | 25102 |     - |  5502k |   0 | 306 | 113 | 413 | 589 | 35 |   0 |   0 | 3.179504e+03 |      --      |    Inf | unknown
  1.2s|     1 |     0 | 25111 |     - |  5502k |   0 | 306 | 113 | 421 | 597 | 36 |   0 |   0 | 3.183874e+03 |      --      |    Inf | unknown
  1.2s|     1 |     0 | 25169 |     - |  5502k |   0 | 306 | 113 | 372 | 614 | 37 |   0 |   0 | 3.409119e+03 |      --      |    Inf | unknown
  1.2s|     1 |     0 | 25180 |     - |  5502k |   0 | 306 | 113 | 380 | 622 | 38 |   0 |   0 | 3.419576e+03 |      --      |    Inf | unknown
  1.2s|     1 |     0 | 25257 |     - |  5502k |   0 | 306 | 113 | 398 | 640 | 39 |   0 |   0 | 3.752980e+03 |      --      |    Inf | unknown
  1.2s|     1 |     0 | 25271 |     - |  5502k |   0 | 306 | 113 | 406 | 648 | 40 |   0 |   0 | 3.771334e+03 |      --      |    Inf | unknown
  1.2s|     1 |     0 | 25351 |     - |  5502k |   0 | 306 | 113 | 422 | 664 | 41 |   0 |   0 | 4.217377e+03 |      --      |    Inf | unknown
  1.2s|     1 |     0 | 25354 |     - |  5502k |   0 | 306 | 113 | 427 | 669 | 42 |   0 |   0 | 4.221238e+03 |      --      |    Inf | unknown
 time | node  | left  |LP iter|LP it/n|mem/heur|mdpt |vars |cons |rows |cuts |sepa|confs|strbr|  dualbound   | primalbound  |  gap   | compl. 
  1.2s|     1 |     0 | 25506 |     - |  5507k |   0 | 306 | 113 | 360 | 685 | 43 |   0 |   0 | 5.065535e+03 |      --      |    Inf | unknown
  1.2s|     1 |     0 | 25513 |     - |  5507k |   0 | 306 | 113 | 366 | 691 | 44 |   0 |   0 | 5.089613e+03 |      --      |    Inf | unknown
  1.2s|     1 |     0 | 25558 |     - |  5507k |   0 | 306 | 113 | 382 | 707 | 45 |   0 |   0 | 5.157627e+03 |      --      |    Inf | unknown
  1.2s|     1 |     0 | 25570 |     - |  5507k |   0 | 306 | 113 | 390 | 715 | 46 |   0 |   0 | 5.160907e+03 |      --      |    Inf | unknown
  1.2s|     1 |     0 | 25615 |     - |  5507k |   0 | 306 | 113 | 407 | 732 | 47 |   0 |   0 | 5.181956e+03 |      --      |    Inf | unknown
  1.2s|     1 |     0 | 25625 |     - |  5507k |   0 | 306 | 113 | 415 | 740 | 48 |   0 |   0 | 5.182060e+03 |      --      |    Inf | unknown
  1.2s|     1 |     0 | 25707 |     - |  5507k |   0 | 306 | 113 | 342 | 756 | 49 |   0 |   0 | 5.338139e+03 |      --      |    Inf | unknown
  1.2s|     1 |     0 | 25721 |     - |  5507k |   0 | 306 | 113 | 353 | 767 | 50 |   0 |   0 | 5.344352e+03 |      --      |    Inf | unknown
  1.2s|     1 |     0 | 25779 |     - |  5507k |   0 | 306 | 113 | 371 | 785 | 51 |   0 |   0 | 5.413970e+03 |      --      |    Inf | unknown
  1.2s|     1 |     0 | 25782 |     - |  5507k |   0 | 306 | 113 | 374 | 788 | 52 |   0 |   0 | 5.414307e+03 |      --      |    Inf | unknown
  1.2s|     1 |     0 | 25840 |     - |  5507k |   0 | 306 | 113 | 391 | 805 | 53 |   0 |   0 | 5.630901e+03 |      --      |    Inf | unknown
  1.2s|     1 |     0 | 25844 |     - |  5507k |   0 | 306 | 113 | 395 | 809 | 54 |   0 |   0 | 5.632445e+03 |      --      |    Inf | unknown
  1.2s|     1 |     0 | 25921 |     - |  5507k |   0 | 306 | 113 | 332 | 826 | 55 |   0 |   0 | 5.719108e+03 |      --      |    Inf | unknown
  1.2s|     1 |     0 | 25927 |     - |  5507k |   0 | 306 | 113 | 338 | 832 | 56 |   0 |   0 | 5.719259e+03 |      --      |    Inf | unknown
  1.2s|     1 |     0 | 26052 |     - |  5507k |   0 | 306 | 113 | 354 | 848 | 57 |   0 |   0 | 6.426202e+03 |      --      |    Inf | unknown
 time | node  | left  |LP iter|LP it/n|mem/heur|mdpt |vars |cons |rows |cuts |sepa|confs|strbr|  dualbound   | primalbound  |  gap   | compl. 
  1.2s|     1 |     0 | 26060 |     - |  5507k |   0 | 306 | 113 | 360 | 854 | 58 |   0 |   0 | 6.426685e+03 |      --      |    Inf | unknown
  1.2s|     1 |     0 | 26087 |     - |  5507k |   0 | 306 | 113 | 378 | 872 | 59 |   0 |   0 | 6.449890e+03 |      --      |    Inf | unknown
  1.2s|     1 |     0 | 26093 |     - |  5507k |   0 | 306 | 113 | 382 | 876 | 60 |   0 |   0 | 6.455005e+03 |      --      |    Inf | unknown
  1.2s|     1 |     0 | 26135 |     - |  5507k |   0 | 306 | 113 | 331 | 895 | 61 |   0 |   0 | 6.473006e+03 |      --      |    Inf | unknown
  1.2s|     1 |     0 | 26154 |     - |  5507k |   0 | 306 | 113 | 337 | 901 | 62 |   0 |   0 | 6.484613e+03 |      --      |    Inf | unknown
  1.2s|     1 |     0 | 26190 |     - |  5507k |   0 | 306 | 113 | 354 | 918 | 63 |   0 |   0 | 6.503042e+03 |      --      |    Inf | unknown
  1.2s|     1 |     0 | 26202 |     - |  5507k |   0 | 306 | 113 | 359 | 923 | 64 |   0 |   0 | 6.505852e+03 |      --      |    Inf | unknown
  1.2s|     1 |     0 | 26313 |     - |  5507k |   0 | 306 | 113 | 379 | 943 | 65 |   0 |   0 | 6.590059e+03 |      --      |    Inf | unknown
  1.2s|     1 |     0 | 26318 |     - |  5507k |   0 | 306 | 113 | 383 | 947 | 66 |   0 |   0 | 6.590229e+03 |      --      |    Inf | unknown
  1.2s|     1 |     0 | 26368 |     - |  5507k |   0 | 306 | 113 | 334 | 963 | 67 |   0 |   0 | 6.600762e+03 |      --      |    Inf | unknown
  1.2s|     1 |     0 | 26371 |     - |  5507k |   0 | 306 | 113 | 338 | 967 | 68 |   0 |   0 | 6.600780e+03 |      --      |    Inf | unknown
  1.2s|     1 |     0 | 26425 |     - |  5507k |   0 | 306 | 113 | 353 | 982 | 69 |   0 |   0 | 6.704875e+03 |      --      |    Inf | unknown
  1.2s|     1 |     0 | 26438 |     - |  5507k |   0 | 306 | 113 | 358 | 987 | 70 |   0 |   0 | 6.705688e+03 |      --      |    Inf | unknown
  1.2s|     1 |     0 | 26472 |     - |  5507k |   0 | 306 | 113 | 375 |1004 | 71 |   0 |   0 | 6.710380e+03 |      --      |    Inf | unknown
  1.2s|     1 |     0 | 26478 |     - |  5507k |   0 | 306 | 113 | 379 |1008 | 72 |   0 |   0 | 6.711055e+03 |      --      |    Inf | unknown
 time | node  | left  |LP iter|LP it/n|mem/heur|mdpt |vars |cons |rows |cuts |sepa|confs|strbr|  dualbound   | primalbound  |  gap   | compl. 
  1.2s|     1 |     0 | 26589 |     - |  5507k |   0 | 306 | 113 | 340 |1022 | 73 |   0 |   0 | 6.931643e+03 |      --      |    Inf | unknown
  1.2s|     1 |     0 | 26599 |     - |  5507k |   0 | 306 | 113 | 349 |1031 | 74 |   0 |   0 | 6.933893e+03 |      --      |    Inf | unknown
  1.2s|     1 |     0 | 26648 |     - |  5507k |   0 | 306 | 113 | 365 |1047 | 75 |   0 |   0 | 6.957908e+03 |      --      |    Inf | unknown
  1.2s|     1 |     0 | 26652 |     - |  5507k |   0 | 306 | 113 | 370 |1052 | 76 |   0 |   0 | 6.958654e+03 |      --      |    Inf | unknown
  1.3s|     1 |     0 | 26718 |     - |  5507k |   0 | 306 | 113 | 389 |1071 | 77 |   0 |   0 | 7.057577e+03 |      --      |    Inf | unknown
  1.3s|     1 |     0 | 26720 |     - |  5507k |   0 | 306 | 113 | 392 |1074 | 78 |   0 |   0 | 7.057803e+03 |      --      |    Inf | unknown
  1.3s|     1 |     0 | 26777 |     - |  5507k |   0 | 306 | 113 | 336 |1089 | 79 |   0 |   0 | 7.090962e+03 |      --      |    Inf | unknown
  1.3s|     1 |     0 | 26789 |     - |  5507k |   0 | 306 | 113 | 339 |1092 | 80 |   0 |   0 | 7.092836e+03 |      --      |    Inf | unknown
  1.3s|     1 |     0 | 26823 |     - |  5507k |   0 | 306 | 113 | 356 |1109 | 81 |   0 |   0 | 7.140445e+03 |      --      |    Inf | unknown
  1.3s|     1 |     0 | 26829 |     - |  5507k |   0 | 306 | 113 | 359 |1112 | 82 |   0 |   0 | 7.140743e+03 |      --      |    Inf | unknown
  1.3s|     1 |     0 | 26920 |     - |  5507k |   0 | 306 | 113 | 377 |1130 | 83 |   0 |   0 | 7.171198e+03 |      --      |    Inf | unknown
  1.3s|     1 |     0 | 26931 |     - |  5507k |   0 | 306 | 113 | 381 |1134 | 84 |   0 |   0 | 7.171775e+03 |      --      |    Inf | unknown
  1.3s|     1 |     0 | 27066 |     - |  5507k |   0 | 306 | 113 | 330 |1150 | 85 |   0 |   0 | 7.232795e+03 |      --      |    Inf | unknown
  1.3s|     1 |     0 | 27072 |     - |  5507k |   0 | 306 | 113 | 333 |1153 | 86 |   0 |   0 | 7.233111e+03 |      --      |    Inf | unknown
  1.3s|     1 |     0 | 27139 |     - |  5507k |   0 | 306 | 113 | 351 |1171 | 87 |   0 |   0 | 7.332361e+03 |      --      |    Inf | unknown
 time | node  | left  |LP iter|LP it/n|mem/heur|mdpt |vars |cons |rows |cuts |sepa|confs|strbr|  dualbound   | primalbound  |  gap   | compl. 
  1.3s|     1 |     0 | 27143 |     - |  5507k |   0 | 306 | 113 | 355 |1175 | 88 |   0 |   0 | 7.332402e+03 |      --      |    Inf | unknown
  1.3s|     1 |     0 | 27301 |     - |  5507k |   0 | 306 | 113 | 372 |1192 | 89 |   0 |   0 | 7.358582e+03 |      --      |    Inf | unknown
  1.3s|     1 |     0 | 27305 |     - |  5507k |   0 | 306 | 113 | 376 |1196 | 90 |   0 |   0 | 7.358590e+03 |      --      |    Inf | unknown
  1.3s|     1 |     0 | 27356 |     - |  5507k |   0 | 306 | 113 | 334 |1212 | 91 |   0 |   0 | 7.368756e+03 |      --      |    Inf | unknown
  1.3s|     1 |     0 | 27363 |     - |  5507k |   0 | 306 | 113 | 341 |1219 | 92 |   0 |   0 | 7.368805e+03 |      --      |    Inf | unknown
  1.3s|     1 |     0 | 27415 |     - |  5507k |   0 | 306 | 113 | 356 |1234 | 93 |   0 |   0 | 7.439284e+03 |      --      |    Inf | unknown
  1.3s|     1 |     0 | 27423 |     - |  5507k |   0 | 306 | 113 | 359 |1237 | 94 |   0 |   0 | 7.439370e+03 |      --      |    Inf | unknown
  1.3s|     1 |     0 | 27482 |     - |  5507k |   0 | 306 | 113 | 376 |1254 | 95 |   0 |   0 | 7.461665e+03 |      --      |    Inf | unknown
  1.3s|     1 |     0 | 27489 |     - |  5507k |   0 | 306 | 113 | 379 |1257 | 96 |   0 |   0 | 7.461722e+03 |      --      |    Inf | unknown
  1.3s|     1 |     0 | 27594 |     - |  5507k |   0 | 306 | 113 | 335 |1270 | 97 |   0 |   0 | 7.508249e+03 |      --      |    Inf | unknown
  1.3s|     1 |     0 | 27603 |     - |  5507k |   0 | 306 | 113 | 338 |1273 | 98 |   0 |   0 | 7.508693e+03 |      --      |    Inf | unknown
  1.3s|     1 |     0 | 27647 |     - |  5507k |   0 | 306 | 113 | 355 |1290 | 99 |   0 |   0 | 7.528987e+03 |      --      |    Inf | unknown
  1.3s|     1 |     0 | 27654 |     - |  5507k |   0 | 306 | 113 | 358 |1293 |100 |   0 |   0 | 7.529029e+03 |      --      |    Inf | unknown
  1.3s|     1 |     0 | 27741 |     - |  5507k |   0 | 306 | 113 | 375 |1310 |101 |   0 |   0 | 7.539315e+03 |      --      |    Inf | unknown
  1.3s|     1 |     0 | 27744 |     - |  5507k |   0 | 306 | 113 | 378 |1313 |102 |   0 |   0 | 7.539319e+03 |      --      |    Inf | unknown
 time | node  | left  |LP iter|LP it/n|mem/heur|mdpt |vars |cons |rows |cuts |sepa|confs|strbr|  dualbound   | primalbound  |  gap   | compl. 
  1.3s|     1 |     0 | 27970 |     - |  5507k |   0 | 306 | 113 | 332 |1330 |103 |   0 |   0 | 7.583360e+03 |      --      |    Inf | unknown
  1.3s|     1 |     0 | 27973 |     - |  5507k |   0 | 306 | 113 | 335 |1333 |104 |   0 |   0 | 7.583392e+03 |      --      |    Inf | unknown
  1.3s|     1 |     0 | 28047 |     - |  5507k |   0 | 306 | 113 | 351 |1349 |105 |   0 |   0 | 7.603093e+03 |      --      |    Inf | unknown
  1.3s|     1 |     0 | 28050 |     - |  5507k |   0 | 306 | 113 | 354 |1352 |106 |   0 |   0 | 7.603105e+03 |      --      |    Inf | unknown
  1.3s|     1 |     0 | 28067 |     - |  5507k |   0 | 306 | 113 | 370 |1368 |107 |   0 |   0 | 7.603640e+03 |      --      |    Inf | unknown
  1.3s|     1 |     0 | 28069 |     - |  5507k |   0 | 306 | 113 | 372 |1370 |108 |   0 |   0 | 7.603641e+03 |      --      |    Inf | unknown
  1.3s|     1 |     0 | 28260 |     - |  5507k |   0 | 306 | 113 | 333 |1384 |109 |   0 |   0 | 7.630861e+03 |      --      |    Inf | unknown
  1.3s|     1 |     0 | 28262 |     - |  5507k |   0 | 306 | 113 | 336 |1387 |110 |   0 |   0 | 7.630862e+03 |      --      |    Inf | unknown
  1.3s|     1 |     0 | 28287 |     - |  5507k |   0 | 306 | 113 | 353 |1404 |111 |   0 |   0 | 7.631844e+03 |      --      |    Inf | unknown
  1.3s|     1 |     0 | 28288 |     - |  5507k |   0 | 306 | 113 | 354 |1405 |112 |   0 |   0 | 7.631844e+03 |      --      |    Inf | unknown
  1.3s|     1 |     0 | 28433 |     - |  5507k |   0 | 306 | 113 | 370 |1421 |113 |   0 |   0 | 7.641207e+03 |      --      |    Inf | unknown
  1.3s|     1 |     0 | 28436 |     - |  5507k |   0 | 306 | 113 | 373 |1424 |114 |   0 |   0 | 7.641383e+03 |      --      |    Inf | unknown
  1.4s|     1 |     0 | 28595 |     - |  5507k |   0 | 306 | 113 | 330 |1441 |115 |   0 |   0 | 7.646213e+03 |      --      |    Inf | unknown
  1.4s|     1 |     0 | 28596 |     - |  5507k |   0 | 306 | 113 | 332 |1443 |116 |   0 |   0 | 7.646214e+03 |      --      |    Inf | unknown
  1.4s|     1 |     0 | 28612 |     - |  5507k |   0 | 306 | 113 | 347 |1458 |117 |   0 |   0 | 7.646326e+03 |      --      |    Inf | unknown
 time | node  | left  |LP iter|LP it/n|mem/heur|mdpt |vars |cons |rows |cuts |sepa|confs|strbr|  dualbound   | primalbound  |  gap   | compl. 
  1.4s|     1 |     2 | 28612 |     - |  5526k |   0 | 306 | 113 | 347 |1458 |118 |   0 |   0 | 7.646326e+03 |      --      |    Inf | unknown

SCIP Status        : solving was interrupted [node limit reached]
Solving Time (sec) : 1.35
Solving Nodes      : 1
Primal Bound       : +1.00000000000000e+20 (0 solutions)
Dual Bound         : +7.64632595300011e+03
Gap                : infinite


SCIP Status        : solving was interrupted [node limit reached]
Total Time         :       1.35
  solving          :       1.35
  presolving       :       0.00 (included in solving)
  reading          :       0.00
  copying          :       0.00 (1 #copies) (minimal 0.00, maximal 0.00, average 0.00)
Original Problem   :
  Problem name     : powerflow0014r
  Variables        : 119 (0 binary, 0 integer, 119 continuous)
  Implied int vars : 0 (0 binary, 0 integer, 0 continuous)
  Constraints      : 198 initial, 198 maximal
  Objective        : minimize, 6 non-zeros (abs.min = 1, abs.max = 4000)
Presolved Problem  :
  Problem name     : t_powerflow0014r
  Variables        : 306 (0 binary, 0 integer, 306 continuous)
  Implied int vars : 0 (0 binary, 0 integer, 0 continuous)
  Constraints      : 113 initial, 113 maximal
  Objective        : minimize, 6 non-zeros (abs.min = 1, abs.max = 4000)
  Nonzeros         : 491 constraint, 0 clique table
Presolvers         :   ExecTime  SetupTime  Calls  FixedVars   AggrVars   ChgTypes  ChgBounds   AddHoles    DelCons    AddCons   ChgSides   ChgCoefs
  boundshift       :       0.00       0.00      0          0          0          0          0          0          0          0          0          0
  convertinttobin  :       0.00       0.00      0          0          0          0          0          0          0          0          0          0
  domcol           :       0.00       0.00      1          0          0          0          0          0          0          0          0          0
  dualagg          :       0.00       0.00      0          0          0          0          0          0          0          0          0          0
  dualcomp         :       0.00       0.00      1          0          0          0          0          0          0          0          0          0
  dualinfer        :       0.00       0.00      0          0          0          0          0          0          0          0          0          0
  dualsparsify     :       0.00       0.00      1          0          0          0          0          0          0          0          0          0
  gateextraction   :       0.00       0.00      0          0          0          0          0          0          0          0          0          0
  implics          :       0.00       0.00      1          0          0          0          0          0          0          0          0          0
  implint          :       0.00       0.00      0          0          0          0          0          0          0          0          0          0
  inttobinary      :       0.00       0.00      0          0          0          0          0          0          0          0          0          0
  qpkktref         :       0.00       0.00      0          0          0          0          0          0          0          0          0          0
  redvub           :       0.00       0.00      0          0          0          0          0          0          0          0          0          0
  sparsify         :       0.00       0.00      1          0          0          0          0          0          0          0          0          0
  stuffing         :       0.00       0.00      0          0          0          0          0          0          0          0          0          0
  trivial          :       0.00       0.00      3          0          0          0          0          0          0          0          0          0
  tworowbnd        :       0.00       0.00      0          0          0          0          0          0          0          0          0          0
  dualfix          :       0.00       0.00      3          0          0          0          0          0          0          0          0          0
  genvbounds       :       0.00       0.00      0          0          0          0          0          0          0          0          0          0
  probing          :       0.00       0.00      0          0          0          0          0          0          0          0          0          0
  pseudoobj        :       0.00       0.00      0          0          0          0          0          0          0          0          0          0
  symmetry         :       0.00       0.00      1          0          0          0          0          0          0          0          0          0
  vbounds          :       0.00       0.00      0          0          0          0          0          0          0          0          0          0
  linear           :       0.00       0.00      4          1         14          0         54          0         31          0          0          0
  nonlinear        :       0.00       0.01      5          0          0          0        340          0         40          0          0          0
  components       :       0.00       0.00      1          0          0          0          0          0          0          0          0          0
  root node        :          -          -      -          0          -          -        190          -          -          -          -          -
Constraints        :     Number  MaxNumber  #Separate #Propagate    #EnfoLP    #EnfoRelax  #EnfoPS    #Check   #ResProp    Cutoffs    DomReds       Cuts    Applied      Conss   Children
  integral         :          0          0          0          0          0          0          0          9          0          0          0          0          0          0          0
  linear           :         18         18         70        121          0          0          0          9          0          0          0          0          0          0          0
  nonlinear        :         95         95         70        121         49          0          0          1          0         28          0        976        419          0          2
  fixedvar         :          0          0          0          0          0          0          0          0          0          0          0          0          0          0          0
  countsols        :          0          0          0          0          0          0          0          0          0          0          0          0          0          0          0
  components       :          0          0          0          0          0          0          0          0          0          0          0          0          0          0          0
Constraint Timings :  TotalTime  SetupTime   Separate  Propagate     EnfoLP     EnfoPS     EnfoRelax   Check    ResProp    SB-Prop
  integral         :       0.00       0.00       0.00       0.00       0.00       0.00       0.00       0.00       0.00       0.00
  linear           :       0.00       0.00       0.00       0.00       0.00       0.00       0.00       0.00       0.00       0.00
  nonlinear        :       0.13       0.01       0.07       0.02       0.03       0.00       0.00       0.00       0.00       0.00
  fixedvar         :       0.00       0.00       0.00       0.00       0.00       0.00       0.00       0.00       0.00       0.00
  countsols        :       0.00       0.00       0.00       0.00       0.00       0.00       0.00       0.00       0.00       0.00
  components       :       0.00       0.00       0.00       0.00       0.00       0.00       0.00       0.00       0.00       0.00
Propagators        : #Propagate   #ResProp    Cutoffs    DomReds
  dualfix          :          2          0          0          0
  genvbounds       :        209          0          0          0
  nlobbt           :          0          0          0          0
  obbt             :        100          0          0          1
  probing          :          0          0          0          0
  pseudoobj        :          0          0          0          0
  redcost          :          0          0          0          0
  rootredcost      :          0          0          0          0
  symmetry         :          0          0          0          0
  vbounds          :          0          0          0          0
Propagator Timings :  TotalTime  SetupTime   Presolve  Propagate    ResProp    SB-Prop
  dualfix          :       0.00       0.00       0.00       0.00       0.00       0.00
  genvbounds       :       0.00       0.00       0.00       0.00       0.00       0.00
  nlobbt           :       0.00       0.00       0.00       0.00       0.00       0.00
  obbt             :       0.98       0.00       0.00       0.98       0.00       0.00
  probing          :       0.00       0.00       0.00       0.00       0.00       0.00
  pseudoobj        :       0.00       0.00       0.00       0.00       0.00       0.00
  redcost          :       0.00       0.00       0.00       0.00       0.00       0.00
  rootredcost      :       0.00       0.00       0.00       0.00       0.00       0.00
  symmetry         :       0.00       0.00       0.00       0.00       0.00       0.00
  vbounds          :       0.00       0.00       0.00       0.00       0.00       0.00
Conflict Analysis  :       Time      Calls    Success    DomReds  Conflicts   Literals    Reconvs ReconvLits   Dualrays   Nonzeros   LP Iters   (pool size: [--,--])
  propagation      :       0.00          0          0          -          0        0.0          0        0.0          -          -          -
  infeasible LP    :       0.00          0          0          -          0        0.0          0        0.0          0        0.0          0
  bound exceed. LP :       0.00          0          0          -          0        0.0          0        0.0          0        0.0          0
  strong branching :       0.00          0          0          -          0        0.0          0        0.0          -          -          0
  pseudo solution  :       0.00          0          0          -          0        0.0          0        0.0          -          -          -
  applied globally :       0.00          -          -          0          0        0.0          -          -          0          -          -
  applied locally  :          -          -          -          0          0        0.0          -          -          0          -          -
Gen. Resolution CA :       Time      Calls    Success  Conflicts  LargeCoef  LongConfs    Length
  propagation      :       0.00          0          0          0          0          0       0.0
Separators         :   ExecTime  SetupTime      Calls  RootCalls    Cutoffs    DomReds  FoundCuts ViaPoolAdd  DirectAdd    Applied ViaPoolApp  DirectApp      Conss
  cut pool         :       0.00          -          0          0          -          -          0          0          -          -          -          -          -    (maximal pool size:          0)
  aggregation      :       0.00       0.00          0          0          0          0          0          0          0          0          0          0          0
  > cmir           :          -          -          -          -          -          -          -          0          0          0          0          0          -
  > flowcover      :          -          -          -          -          -          -          -          0          0          0          0          0          -
  > knapsackcover  :          -          -          -          -          -          -          -          0          0          0          0          0          -
  cgmip            :       0.00       0.00          0          0          0          0          0          0          0          0          0          0          0
  clique           :       0.00       0.00          0          0          0          0          0          0          0          0          0          0          0
  closecuts        :       0.00       0.00          0          0          0          0          0          0          0          0          0          0          0
  convexproj       :       0.00       0.00          0          0          0          0          0          0          0          0          0          0          0
  disjunctive      :       0.00       0.00          0          0          0          0          0          0          0          0          0          0          0
  eccuts           :       0.00       0.00          0          0          0          0          0          0          0          0          0          0          0
  flower           :       0.00       0.00         70         70          0          0          0          0          0          0          0          0          0
  gauge            :       0.00       0.00          0          0          0          0          0          0          0          0          0          0          0
  gomory           :       0.00       0.00          0          0          0          0          0          0          0          0          0          0          0
  > gomorymi       :          -          -          -          -          -          -          -          0          0          0          0          0          -
  > strongcg       :          -          -          -          -          -          -          -          0          0          0          0          0          -
  impliedbounds    :       0.00       0.00          0          0          0          0          0          0          0          0          0          0          0
  interminor       :       0.00       0.00          0          0          0          0          0          0          0          0          0          0          0
  intobj           :       0.00       0.00          0          0          0          0          0          0          0          0          0          0          0
  lagromory        :       0.00       0.00          0          0          0          0          0          0          0          0          0          0          0
  mcf              :       0.00       0.00          0          0          0          0          0          0          0          0          0          0          0
  minor            :       0.04       0.00         70         70          0          0       4548          0       4548       1039          0       1039          0
  mixing           :       0.00       0.00         70         70          0          0          0          0          0          0          0          0          0
  oddcycle         :       0.00       0.00          0          0          0          0          0          0          0          0          0          0          0
  rapidlearning    :       0.00       0.00          0          0          0          0          0          0          0          0          0          0          0
  rlt              :       0.00       0.00         10         10          0          0          0          0          0          0          0          0          0
  zerohalf         :       0.00       0.00          0          0          0          0          0          0          0          0          0          0          0
Cutselectors       :   ExecTime  SetupTime      Calls  RootCalls   Selected     Forced   Filtered  RootSelec   RootForc   RootFilt 
  hybrid           :       0.00       0.00         70         70       1179          0       4058       1179          0       4058
  ensemble         :       0.00       0.00          0          0          0          0          0          0          0          0
  dynamic          :       0.00       0.00          0          0          0          0          0          0          0          0
Pricers            :   ExecTime  SetupTime      Calls       Vars
  problem variables:       0.00          -          0          0
Branching Rules    :   ExecTime  SetupTime   BranchLP  BranchExt   BranchPS    Cutoffs    DomReds       Cuts      Conss   Children
  allfullstrong    :       0.00       0.00          0          0          0          0          0          0          0          0
  cloud            :       0.00       0.00          0          0          0          0          0          0          0          0
  distribution     :       0.00       0.00          0          0          0          0          0          0          0          0
  fullstrong       :       0.00       0.00          0          0          0          0          0          0          0          0
  gomory           :       0.00       0.00          0          0          0          0          0          0          0          0
  inference        :       0.00       0.00          0          0          0          0          0          0          0          0
  leastinf         :       0.00       0.00          0          0          0          0          0          0          0          0
  lookahead        :       0.00       0.00          0          0          0          0          0          0          0          0
  mostinf          :       0.00       0.00          0          0          0          0          0          0          0          0
  multaggr         :       0.00       0.00          0          0          0          0          0          0          0          0
  nodereopt        :       0.00       0.00          0          0          0          0          0          0          0          0
  pscost           :       0.00       0.00          0          0          0          0          0          0          0          0
  random           :       0.00       0.00          0          0          0          0          0          0          0          0
  relpscost        :       0.00       0.00          0          0          0          0          0          0          0          0
  vanillafullstrong:       0.00       0.00          0          0          0          0          0          0          0          0
Primal Heuristics  :   ExecTime  SetupTime      Calls      Found       Best
  LP solutions     :       0.00          -          -          0          0
  relax solutions  :       0.00          -          -          0          0
  pseudo solutions :       0.00          -          -          0          0
  strong branching :       0.00          -          -          0          0
  actconsdiving    :       0.00       0.00          0          0          0
  adaptivediving   :       0.00       0.00          0          0          0
  alns             :       0.01       0.00          1          0          0
  bound            :       0.00       0.00          0          0          0
  clique           :       0.00       0.00          0          0          0
  coefdiving       :       0.00       0.00          0          0          0
  completesol      :       0.00       0.00          0          0          0
  conflictdiving   :       0.00       0.00          0          0          0
  crossover        :       0.00       0.00          0          0          0
  dins             :       0.00       0.00          0          0          0
  distributiondivin:       0.00       0.00          0          0          0
  dks              :       0.00       0.00          0          0          0
  dps              :       0.00       0.00          0          0          0
  dualval          :       0.00       0.00          0          0          0
  farkasdiving     :       0.00       0.00          0          0          0
  feaspump         :       0.00       0.00          0          0          0
  fixandinfer      :       0.00       0.00          0          0          0
  fracdiving       :       0.00       0.00          0          0          0
  gins             :       0.00       0.00          0          0          0
  guideddiving     :       0.00       0.00          0          0          0
  indicator        :       0.00       0.00          0          0          0
  indicatordiving  :       0.00       0.00          0          0          0
  intdiving        :       0.00       0.00          0          0          0
  intshifting      :       0.00       0.00          0          0          0
  linesearchdiving :       0.00       0.00          0          0          0
  localbranching   :       0.00       0.00          0          0          0
  locks            :       0.00       0.00          0          0          0
  lpface           :       0.00       0.00          0          0          0
  mpec             :       0.00       0.00          0          0          0
  multistart       :       0.00       0.00          0          0          0
  mutation         :       0.00       0.00          0          0          0
  nlpdiving        :       0.00       0.00          0          0          0
  objpscostdiving  :       0.00       0.00          0          0          0
  octane           :       0.00       0.00          0          0          0
  ofins            :       0.00       0.00          0          0          0
  oneopt           :       0.00       0.00          0          0          0
  padm             :       0.00       0.00          0          0          0
  proximity        :       0.00       0.00          0          0          0
  pscostdiving     :       0.00       0.00          0          0          0
  randrounding     :       0.00       0.00          0          0          0
  rens             :       0.00       0.00          0          0          0
  reoptsols        :       0.00       0.00          0          0          0
  repair           :       0.00       0.00          0          0          0
  rins             :       0.00       0.00          0          0          0
  rootsoldiving    :       0.00       0.00          0          0          0
  rounding         :       0.00       0.00          0          0          0
  scheduler        :       0.00       0.00          0          0          0
  shiftandpropagate:       0.00       0.00          0          0          0
  shifting         :       0.00       0.00          0          0          0
  simplerounding   :       0.00       0.00          0          0          0
  subnlp           :       0.00       0.00          0          0          0
  trivial          :       0.00       0.00          2          0          0
  trivialnegation  :       0.00       0.00          0          0          0
  trustregion      :       0.00       0.00          0          0          0
  trysol           :       0.00       0.00          0          0          0
  twoopt           :       0.00       0.00          0          0          0
  undercover       :       0.04       0.00          1          0          0
  vbounds          :       0.00       0.00          0          0          0
  veclendiving     :       0.00       0.00          0          0          0
  zeroobj          :       0.00       0.00          0          0          0
  zirounding       :       0.00       0.00          0          0          0
  other solutions  :          -          -          -          0          -
LNS (Scheduler)    :      Calls  SetupTime  SolveTime SolveNodes       Sols       Best       Exp3    Exp3-IX  EpsGreedy        UCB TgtFixRate  Opt  Inf Node Stal  Sol  Usr Othr Actv
  zeroobjective    :          0       0.00       0.00          0          0          0    0.00000    1.00000   -1.00000    1.00000      0.900    0    0    0    0    0    0    0    1
  rens             :          0       0.00       0.00          0          0          0    0.00000    0.00000   -1.00000    1.00000      0.900    0    0    0    0    0    0    0    0
  rins             :          0       0.00       0.00          0          0          0    0.00000    0.00000   -1.00000    1.00000      0.900    0    0    0    0    0    0    0    0
  mutation         :          0       0.00       0.00          0          0          0    0.00000    0.00000   -1.00000    1.00000      0.900    0    0    0    0    0    0    0    0
  localbranching   :          0       0.00       0.00          0          0          0    0.00000    0.00000   -1.00000    1.00000      0.900    0    0    0    0    0    0    0    0
  crossover        :          0       0.00       0.00          0          0          0    0.00000    0.00000   -1.00000    1.00000      0.900    0    0    0    0    0    0    0    0
  proximity        :          0       0.00       0.00          0          0          0    0.00000    0.00000   -1.00000    1.00000      0.900    0    0    0    0    0    0    0    0
  dins             :          0       0.00       0.00          0          0          0    0.00000    0.00000   -1.00000    1.00000      0.900    0    0    0    0    0    0    0    0
  trustregion      :          0       0.00       0.00          0          0          0    0.00000    0.00000   -1.00000    1.00000      0.900    0    0    0    0    0    0    0    0
Expressions        :   #IntEval  IntEvalTi   #RevProp  RevPropTi    DomReds    Cutoffs  #Estimate  EstimTime  Branching  #Simplify SimplifyTi Simplified
  pow              :       4152       0.00        550       0.00        298          0      11222       0.00       1192        656       0.00         14
  prod             :       1380       0.00         88       0.00         19          0      21560       0.01       3723        816       0.00         24
  sum              :       2294       0.00       1481       0.00        417          0         95       0.00          0        402       0.00        119
  val              :          0       0.00          0       0.00          0          0          0       0.00          0          0       0.00          0
  var              :       6728       0.01          0       0.00          0          0          0       0.00          0       2426       0.00         42
Nlhdlrs            :    Detects  DetectAll DetectTime   #IntEval  IntEvalTi   #RevProp  RevPropTi    DomReds    Cutoffs   #Enforce   EnfoTime       Cuts  Branching
  soc              :          0          0       0.00          0       0.00          0       0.00          0          0          0       0.00          0          0
  convex           :          0          0       0.00          0       0.00          0       0.00          0          0          0       0.00          0          0
  concave          :          0          0       0.00          0       0.00          0       0.00          0          0          0       0.00          0          0
  signomial        :          0          0       0.00          0       0.00          0       0.00          0          0          0       0.00          0          0
  quotient         :          0          0       0.00          0       0.00          0       0.00          0          0          0       0.00          0          0
  quadratic        :         70        424       0.00       5551       0.00       5126       0.02       2066         19          0       0.00          0          0
  default          :        333       1366       0.00       7017       0.00       2431       0.00        734          1      32774       0.06        976          0
  bilinear         :         76         76       0.00        804       0.00         68       0.00          0          0      21030       0.00          0          0
  perspective      :          0          0       0.00          0       0.00          0       0.00          0          0          0       0.00          0          0
Quadratic Nlhdlr   :    GenCuts    AddCuts  CouldImpr   NLargeRE AbrtBadRay AbrtPosPhi AbrtNonBas  NStrength  NMonoidal AveCutcoef    AveMonoidalImprov AveDensity AveEfficacy AveBCutsFrac 
  Quadratic Nlhdlr :          0          0          0          0          0          0          0          0          0          0                   -1          0          0          0
Quadratic SetSel   :       Rule      Calls    Changed   Fallback      Evals    AveGain IntercutTime   SelectTime    Applied     Active   RootAppl
  Quadratic SetSel :          0          0          0          0          0          0       0.0000       0.0000          0          0          0
LP                 :       Time      Calls Iterations  Iter/call   Iter/sec  Time-0-It Calls-0-It
  primal LP        :       0.00         20        354     354.00          -       0.00         19
  dual LP          :       0.17        119       6401      53.79   37652.94       0.00          0
  lex dual LP      :       0.00          0          0       0.00          -
  barrier LP       :       0.00          0          0       0.00          -       0.00          0
  resolve instable :       0.00          0          0       0.00          -
  diving/probing LP:       0.95        236      21857      92.61   23007.37
  strong branching :       0.00          0          0       0.00          -          -          -          0
    (at root node) :          -          0          0       0.00          -
  conflict analysis:       0.00          0          0       0.00          -
NLP relaxation     :
  solve time       :       0.00 (0 calls)
  convexity        :  nonconvex (18 linear rows, 1 convex ineq., 0 nonconvex ineq., 94 nonlinear eq. or two-sided ineq.)
Relaxators         :       Time      Calls    Cutoffs ImprBounds   ImprTime ReducedDom  Separated AddedConss
  benders          :       0.00          0          0          0       0.00          0          0          0
B&B Tree           :
  number of runs   :          1
  nodes            :          1 (1 internal, 0 leaves)
  feasible leaves  :          0
  infeas. leaves   :          0
  objective leaves :          0
  nodes (total)    :          1 (1 internal, 0 leaves)
  nodes left       :          2
  max depth        :          0
  max depth (total):          0
  backtracks       :          0 (0.0%)
  early backtracks :          0 (0.0%)
  nodes exc. ref.  :          0 (0.0%)
  delayed cutoffs  :          0
  repropagations   :          0 (0 domain reductions, 0 cutoffs)
  avg switch length:       1.00
  switching time   :       0.00
Root Node          :
  First LP value   : -1.00000000000000e-09
  First LP Iters   :        226
  First LP Time    :       0.00
  Final Dual Bound : +7.64632595300011e+03
  Final Root Iters :       6759
  Root LP Estimate : +7.64632595300011e+03
Solution           :
  Solutions found  :          0 (0 improvements)
  Primal Bound     :          -
  Dual Bound       : +7.64632595300011e+03
  Gap              :   infinite
Integrals          :      Total       Avg%
  primal-dual      :     135.00     100.00
  primal-ref       :          -          - (not evaluated)
  dual-ref         :          -          - (not evaluated)



@@ wallclock 1.53 returncode 0
